test_cases/case141_added_gens_4.m
%% MATPOWER Case Format : Version 2
function mpc = case141
mpc.version = '2';

%%-----  Power Flow Data  -----%%
%% system MVA base
mpc.baseMVA = 10;
%% bus data
%    bus_i    type    Pd    Qd    Gs    Bs    area    Vm    Va    baseKV    zone    Vmax    Vmin
mpc.bus = [
	1	3	0.0	0.0	0.0	0.0	2	1.0	0.0	12.47	1	1.0	1.0				
	2	1	0.0	0.0	0.0	0.0	2	1.0	0.0	12.47	1	1.1	0.9				
	3	1	0.0	0.0	0.0	0.0	2	1.0	0.0	12.47	1	1.1	0.9				
	4	1	0.0	0.0	0.0	0.0	2	1.0	0.0	12.47	1	1.1	0.9				
	5	1	0.0	0.0	0.0	0.0	2	1.0	0.0	12.47	1	1.1	0.9				
	6	1	0.0	0.0	0.0	0.0	2	1.0	0.0	12.47	1	1.1	0.9				
	7	1	0.0	0.0	0.0	0.0	2	1.0	0.0	12.47	1	1.1	0.9				
	8	1	0.06375	0.0395087015731978	0.0	0.0	1	1.0	0.0	12.47	1	1.1	0.9				
	9	1	0.0085	0.0052678268764263705	0.0	0.0	1	1.0	0.0	12.47	1	1.1	0.9				
	10	1	0.0	0.0	0.0	0.0	1	1.0	0.0	12.47	1	1.1	0.9				
	11	1	0.0	0.0	0.0	0.0	1	1.0	0.0	12.47	1	1.1	0.9				
	12	1	0.02125	0.0131695671910659	0.0	0.0	1	1.0	0.0	12.47	1	1.1	0.9				
	13	1	0.06375	0.0395087015731978	0.0	0.0	1	1.0	0.0	12.47	1	1.1	0.9				
	14	1	0.0	0.0	0.0	0.0	1	1.0	0.0	12.47	1	1.1	0.9				
	15	1	0.0	0.0	0.0	0.0	1	1.0	0.0	12.47	1	1.1	0.9				
	16	1	0.0	0.0	0.0	0.0	1	1.0	0.0	12.47	1	1.1	0.9				
	17	1	0.1275	0.07901740314639552	0.0	0.0	3	1.0	0.0	12.47	1	1.1	0.9				
	18	1	0.0	0.0	0.0	0.0	3	1.0	0.0	12.47	1	1.1	0.9				
	19	1	0.0	0.0	0.0	0.0	3	1.0	0.0	12.47	1	1.1	0.9				
	20	1	0.06375	0.0395087015731978	0.0	0.0	3	1.0	0.0	12.47	1	1.1	0.9				
	21	1	0.06375	0.0395087015731978	0.0	0.0	3	1.0	0.0	12.47	1	1.1	0.9				
	22	1	0.0	0.0	0.0	0.0	3	1.0	0.0	12.47	1	1.1	0.9				
	23	1	0.06375	0.0395087015731978	0.0	0.0	3	1.0	0.0	12.47	1	1.1	0.9				
	24	1	0.0	0.0	0.0	0.0	3	1.0	0.0	12.47	1	1.1	0.9				
	25	1	0.0	0.0	0.0	0.0	3	1.0	0.0	12.47	1	1.1	0.9				
	26	1	0.1275	0.07901740314639552	0.0	0.0	3	1.0	0.0	12.47	1	1.1	0.9				
	27	1	0.06375	0.0395087015731978	0.0	0.0	3	1.0	0.0	12.47	1	1.1	0.9				
	28	2	0.0	0.0	0.0	0.0	3	1.0	0.0	12.47	1	1.1	0.9				
	29	1	0.06375	0.0395087015731978	0.0	0.0	3	1.0	0.0	12.47	1	1.1	0.9				
	30	1	0.0	0.0	0.0	0.0	3	1.0	0.0	12.47	1	1.1	0.9				
	31	1	0.0	0.0	0.0	0.0	3	1.0	0.0	12.47	1	1.1	0.9				
	32	1	0.1275	0.07901740314639552	0.0	0.0	3	1.0	0.0	12.47	1	1.1	0.9				
	33	1	0.0	0.0	0.0	0.0	2	1.0	0.0	12.47	1	1.1	0.9				
	34	1	0.1275	0.07901740314639552	0.0	0.0	2	1.0	0.0	12.47	1	1.1	0.9				
	35	1	0.255	0.15803480629279104	0.0	0.0	2	1.0	0.0	12.47	1	1.1	0.9				
	36	1	0.1275	0.07901740314639552	0.0	0.0	2	1.0	0.0	12.47	1	1.1	0.9				
	37	1	0.0425	0.0263391343821318	0.0	0.0	2	1.0	0.0	12.47	1	1.1	0.9				
	38	1	0.0	0.0	0.0	0.0	4	1.0	0.0	12.47	1	1.1	0.9				
	39	1	0.017	0.0105356537528527	0.0	0.0	4	1.0	0.0	12.47	1	1.1	0.9				
	40	1	0.0	0.0	0.0	0.0	4	1.0	0.0	12.47	1	1.1	0.9				
	41	1	0.06375	0.0395087015731978	0.0	0.0	4	1.0	0.0	12.47	1	1.1	0.9				
	42	1	0.0	0.0	0.0	0.0	4	1.0	0.0	12.47	1	1.1	0.9				
	43	1	0.0	0.0	0.0	0.0	4	1.0	0.0	12.47	1	1.1	0.9				
	44	1	0.0425	0.0263391343821318	0.0	0.0	4	1.0	0.0	12.47	1	1.1	0.9				
	45	1	0.0	0.0	0.0	0.0	3	1.0	0.0	12.47	1	1.1	0.9				
	46	1	0.0	0.0	0.0	0.0	3	1.0	0.0	12.47	1	1.1	0.9				
	47	1	0.0	0.0	0.0	0.0	3	1.0	0.0	12.47	1	1.1	0.9				
	48	1	0.10624999999999998	0.0658478359553296	0.0	0.0	3	1.0	0.0	12.47	1	1.1	0.9				
	49	1	0.1275	0.07901740314639552	0.0	0.0	3	1.0	0.0	12.47	1	1.1	0.9				
	50	1	0.0	0.0	0.0	0.0	3	1.0	0.0	12.47	1	1.1	0.9				
	51	1	0.10624999999999998	0.0658478359553296	0.0	0.0	3	1.0	0.0	12.47	1	1.1	0.9				
	52	1	0.06375	0.0395087015731978	0.0	0.0	3	1.0	0.0	12.47	1	1.1	0.9				
	53	1	0.085	0.05267826876426371	0.0	0.0	4	1.0	0.0	12.47	1	1.1	0.9				
	54	2	0.0	0.0	0.0	0.0	4	1.0	0.0	12.47	1	1.1	0.9				
	55	1	0.0	0.0	0.0	0.0	4	1.0	0.0	12.47	1	1.1	0.9				
	56	1	0.02125	0.0131695671910659	0.0	0.0	4	1.0	0.0	12.47	1	1.1	0.9				
	57	1	0.0	0.0	0.0	0.0	4	1.0	0.0	12.47	1	1.1	0.9				
	58	1	0.255	0.15803480629279104	0.0	0.0	4	1.0	0.0	12.47	1	1.1	0.9				
	59	1	0.1275	0.07901740314639552	0.0	0.0	4	1.0	0.0	12.47	1	1.1	0.9				
	60	1	0.0	0.0	0.0	0.0	4	1.0	0.0	12.47	1	1.1	0.9				
	61	1	0.255	0.15803480629279104	0.0	0.0	4	1.0	0.0	12.47	1	1.1	0.9				
	62	1	0.17	0.105356537528527	0.0	0.0	4	1.0	0.0	12.47	1	1.1	0.9				
	63	1	0.0	0.0	0.0	0.0	4	1.0	0.0	12.47	1	1.1	0.9				
	64	1	0.255	0.15803480629279104	0.0	0.0	4	1.0	0.0	12.47	1	1.1	0.9				
	65	1	0.1275	0.07901740314639552	0.0	0.0	4	1.0	0.0	12.47	1	1.1	0.9				
	66	1	0.19125	0.11852610471959302	0.0	0.0	4	1.0	0.0	12.47	1	1.1	0.9				
	67	1	0.0425	0.0263391343821318	0.0	0.0	4	1.0	0.0	12.47	1	1.1	0.9				
	68	1	0.085	0.05267826876426371	0.0	0.0	4	1.0	0.0	12.47	1	1.1	0.9				
	69	1	0.255	0.15803480629279104	0.0	0.0	4	1.0	0.0	12.47	1	1.1	0.9				
	70	1	0.0	0.0	0.0	0.0	4	1.0	0.0	12.47	1	1.1	0.9				
	71	1	0.255	0.15803480629279104	0.0	0.0	4	1.0	0.0	12.47	1	1.1	0.9				
	72	1	0.1275	0.07901740314639552	0.0	0.0	4	1.0	0.0	12.47	1	1.1	0.9				
	73	1	0.255	0.15803480629279104	0.0	0.0	4	1.0	0.0	12.47	1	1.1	0.9				
	74	1	0.255	0.15803480629279104	0.0	0.0	4	1.0	0.0	12.47	1	1.1	0.9				
	75	1	0.03825	0.0237052209439187	0.0	0.0	4	1.0	0.0	12.47	1	1.1	0.9				
	76	1	0.06375	0.0395087015731978	0.0	0.0	4	1.0	0.0	12.47	1	1.1	0.9				
	77	1	0.1275	0.07901740314639552	0.0	0.0	3	1.0	0.0	12.47	1	1.1	0.9				
	78	1	0.0	0.0	0.0	0.0	4	1.0	0.0	12.47	1	1.1	0.9				
	79	1	0.427125	0.264708300540425	0.0	0.0	4	1.0	0.0	12.47	1	1.1	0.9				
	80	1	0.6375	0.395087015731978	0.0	0.0	4	1.0	0.0	12.47	1	1.1	0.9				
	81	1	0.0	0.0	0.0	0.0	4	1.0	0.0	12.47	1	1.1	0.9				
	82	1	0.1275	0.07901740314639552	0.0	0.0	4	1.0	0.0	12.47	1	1.1	0.9				
	83	1	0.06375	0.0395087015731978	0.0	0.0	3	1.0	0.0	12.47	1	1.1	0.9				
	84	1	0.19125	0.11852610471959302	0.0	0.0	3	1.0	0.0	12.47	1	1.1	0.9				
	85	1	0.0	0.0	0.0	0.0	3	1.0	0.0	12.47	1	1.1	0.9				
	86	1	0.42499999999999993	0.263391343821318	0.0	0.0	3	1.0	0.0	12.47	1	1.1	0.9				
	87	1	0.1275	0.07901740314639552	0.0	0.0	3	1.0	0.0	12.47	1	1.1	0.9				
	88	1	0.06375	0.0395087015731978	0.0	0.0	2	1.0	0.0	12.47	1	1.1	0.9				
	89	1	0.05525000000000001	0.0342408746967714	0.0	0.0	2	1.0	0.0	12.47	1	1.1	0.9				
	90	1	0.0	0.0	0.0	0.0	2	1.0	0.0	12.47	1	1.1	0.9				
	91	1	0.0	0.0	0.0	0.0	2	1.0	0.0	12.47	1	1.1	0.9				
	92	2	0.0	0.0	0.0	0.0	2	1.0	0.0	12.47	1	1.1	0.9				
	93	1	0.0	0.0	0.0	0.0	2	1.0	0.0	12.47	1	1.1	0.9				
	94	1	0.0935	0.0579460956406901	0.0	0.0	2	1.0	0.0	12.47	1	1.1	0.9				
	95	1	0.0	0.0	0.0	0.0	2	1.0	0.0	12.47	1	1.1	0.9				
	96	1	0.1275	0.07901740314639552	0.0	0.0	2	1.0	0.0	12.47	1	1.1	0.9				
	97	1	0.0	0.0	0.0	0.0	2	1.0	0.0	12.47	1	1.1	0.9				
	98	1	0.255	0.15803480629279104	0.0	0.0	2	1.0	0.0	12.47	1	1.1	0.9				
	99	1	0.0	0.0	0.0	0.0	2	1.0	0.0	12.47	1	1.1	0.9				
	100	1	0.255	0.15803480629279104	0.0	0.0	2	1.0	0.0	12.47	1	1.1	0.9				
	101	1	0.01275	0.00790174031463955	0.0	0.0	2	1.0	0.0	12.47	1	1.1	0.9				
	102	1	0.0	0.0	0.0	0.0	2	1.0	0.0	12.47	1	1.1	0.9				
	103	1	0.10624999999999998	0.0658478359553296	0.0	0.0	2	1.0	0.0	12.47	1	1.1	0.9				
	104	1	0.0	0.0	0.0	0.0	2	1.0	0.0	12.47	1	1.1	0.9				
	105	1	0.255	0.15803480629279104	0.0	0.0	2	1.0	0.0	12.47	1	1.1	0.9				
	106	1	0.1275	0.07901740314639552	0.0	0.0	2	1.0	0.0	12.47	1	1.1	0.9				
	107	1	0.427125	0.264708300540425	0.0	0.0	2	1.0	0.0	12.47	1	1.1	0.9				
	108	1	0.0	0.0	0.0	0.0	2	1.0	0.0	12.47	1	1.1	0.9				
	109	1	0.6375	0.395087015731978	0.0	0.0	2	1.0	0.0	12.47	1	1.1	0.9				
	110	1	0.6375	0.395087015731978	0.0	0.0	2	1.0	0.0	12.47	1	1.1	0.9				
	111	1	0.02125	0.0131695671910659	0.0	0.0	2	1.0	0.0	12.47	1	1.1	0.9				
	112	1	0.42499999999999993	0.263391343821318	0.0	0.0	1	1.0	0.0	12.47	1	1.1	0.9				
	113	1	0.06375	0.0395087015731978	0.0	0.0	1	1.0	0.0	12.47	1	1.1	0.9				
	114	1	0.0	0.0	0.0	0.0	1	1.0	0.0	12.47	1	1.1	0.9				
	115	1	0.0	0.0	0.0	0.0	1	1.0	0.0	12.47	1	1.1	0.9				
	116	1	0.255	0.15803480629279104	0.0	0.0	1	1.0	0.0	12.47	1	1.1	0.9				
	117	1	0.05525000000000001	0.0342408746967714	0.0	0.0	1	1.0	0.0	12.47	1	1.1	0.9				
	118	1	0.0	0.0	0.0	0.0	1	1.0	0.0	12.47	1	1.1	0.9				
	119	1	0.0935	0.0579460956406901	0.0	0.0	1	1.0	0.0	12.47	1	1.1	0.9				
	120	1	0.0	0.0	0.0	0.0	1	1.0	0.0	12.47	1	1.1	0.9				
	121	2	0.0	0.0	0.0	0.0	1	1.0	0.0	12.47	1	1.1	0.9				
	122	1	0.0	0.0	0.0	0.0	1	1.0	0.0	12.47	1	1.1	0.9				
	123	1	0.085	0.05267826876426371	0.0	0.0	1	1.0	0.0	12.47	1	1.1	0.9				
	124	1	0.10624999999999998	0.0658478359553296	0.0	0.0	1	1.0	0.0	12.47	1	1.1	0.9				
	125	1	0.0	0.0	0.0	0.0	1	1.0	0.0	12.47	1	1.1	0.9				
	126	1	0.0	0.0	0.0	0.0	1	1.0	0.0	12.47	1	1.1	0.9				
	127	1	0.06375	0.0395087015731978	0.0	0.0	1	1.0	0.0	12.47	1	1.1	0.9				
	128	1	0.06375	0.0395087015731978	0.0	0.0	1	1.0	0.0	12.47	1	1.1	0.9				
	129	1	0.0935	0.0579460956406901	0.0	0.0	1	1.0	0.0	12.47	1	1.1	0.9				
	130	1	0.095625	0.0592630523597967	0.0	0.0	1	1.0	0.0	12.47	1	1.1	0.9				
	131	1	0.0	0.0	0.0	0.0	1	1.0	0.0	12.47	1	1.1	0.9				
	132	1	0.06375	0.0395087015731978	0.0	0.0	1	1.0	0.0	12.47	1	1.1	0.9				
	133	1	0.03825	0.0237052209439187	0.0	0.0	1	1.0	0.0	12.47	1	1.1	0.9				
	134	1	0.02975	0.0184373940674923	0.0	0.0	1	1.0	0.0	12.47	1	1.1	0.9				
	135	1	0.02125	0.0131695671910659	0.0	0.0	1	1.0	0.0	12.47	1	1.1	0.9				
	136	1	0.06375	0.0395087015731978	0.0	0.0	1	1.0	0.0	12.47	1	1.1	0.9				
	137	1	0.04675	0.028973047820345	0.0	0.0	3	1.0	0.0	12.47	1	1.1	0.9				
	138	1	0.0425	0.0263391343821318	0.0	0.0	3	1.0	0.0	12.47	1	1.1	0.9				
	139	1	0.0425	0.0263391343821318	0.0	0.0	3	1.0	0.0	12.47	1	1.1	0.9				
	140	1	0.1275	0.07901740314639552	0.0	0.0	3	1.0	0.0	12.47	1	1.1	0.9				
	141	1	0.06375	0.0395087015731978	0.0	0.0	3	1.0	0.0	12.47	1	1.1	0.9				
];

%% generator data
%    bus    Pg    Qg    Qmax    Qmin    Vg    mBase    status    Pmax    Pmin    Pc1    Pc2    Qc1min    Qc1max    Qc2min    Qc2max    ramp_agc    ramp_10    ramp_30    ramp_q    apf
mpc.gen = [
	1	0.0	0.0	100.0	-100.0	1.0	100.0	1	100.0	0.0	0.0	0.0	0.0	0.0	0.0	0.0	0.0	0.0	0.0	0.0	0.0				
	121	0.0	0.0	0.5972312500000001	-0.5972312500000001	1.0	100.0	1	1.1944625000000002	0	0.0	0.0	0.0	0.0	0.0	0.0	0.0	0.0	0.0	0.0	0.0				
	92	0.0	0.0	0.5972312500000001	-0.5972312500000001	1.0	100.0	1	1.1944625000000002	0	0.0	0.0	0.0	0.0	0.0	0.0	0.0	0.0	0.0	0.0	0.0				
	28	0.0	0.0	0.5972312500000001	-0.5972312500000001	1.0	100.0	1	1.1944625000000002	0	0.0	0.0	0.0	0.0	0.0	0.0	0.0	0.0	0.0	0.0	0.0				
	54	0.0	0.0	0.5972312500000001	-0.5972312500000001	1.0	100.0	1	1.1944625000000002	0	0.0	0.0	0.0	0.0	0.0	0.0	0.0	0.0	0.0	0.0	0.0				
];

%% branch data
%    f_bus    t_bus    r    x    b    rateA    rateB    rateC    ratio    angle    status    angmin    angmax
mpc.branch = [
	1	2	0.00371058945639543	0.00263020985730629	0.0	0.0	0.0	0.0	0	0	1	-60.0001403060998	60.0001403060998								
	2	3	0.0110931833835045	0.00786490624813104	0.0	0.0	0.0	0.0	0	0	1	-60.0001403060998	60.0001403060998								
	3	4	5.78774785226323e-5	3.85849856817549e-5	0.0	0.0	0.0	0.0	0	0	1	-60.0001403060998	60.0001403060998								
	4	5	0.000591636447120242	0.000418004011552345	0.0	0.0	0.0	0.0	0	0	1	-60.0001403060998	60.0001403060998								
	5	6	0.000437296504393222	0.000315110716400998	0.0	0.0	0.0	0.0	0	0	1	-60.0001403060998	60.0001403060998								
	6	7	0.00301605971412384	0.00401926934184947	0.0	0.0	0.0	0.0	0	0	1	-60.0001403060998	60.0001403060998								
	7	8	0.00473309157696193	0.00630864515896693	0.0	0.0	0.0	0.0	0	0	1	-60.0001403060998	60.0001403060998								
	8	9	0.00417360928457649	0.00295175140465425	0.0	0.0	0.0	0.0	0	0	1	-60.0001403060998	60.0001403060998								
	9	10	0.00326043129010829	0.00230866830995833	0.0	0.0	0.0	0.0	0	0	1	-60.0001403060998	60.0001403060998								
	10	11	0.000745976389847261	0.00052732813765065	0.0	0.0	0.0	0.0	0	0	1	-60.0001403060998	60.0001403060998								
	11	12	0.00830220275252426	0.0058713486545737	0.0	0.0	0.0	0.0	0	0	1	-60.0001403060998	60.0001403060998								
	12	13	0.00789062957191888	0.00556909960006662	0.0	0.0	0.0	0.0	0	0	1	-60.0001403060998	60.0001403060998								
	13	14	0.00313824550211607	0.00221863667670091	0.0	0.0	0.0	0.0	0	0	1	-60.0001403060998	60.0001403060998								
	14	15	0.00615430521623991	0.00435367255109134	0.0	0.0	0.0	0.0	0	0	1	-60.0001403060998	60.0001403060998								
	15	16	0.00553051461438487	0.00391637604669812	0.0	0.0	0.0	0.0	0	0	1	-60.0001403060998	60.0001403060998								
	16	17	0.00255947071688974	0.00181349432704248	0.0	0.0	0.0	0.0	0	0	1	-60.0001403060998	60.0001403060998								
	17	18	0.00532472802408218	0.00363985031597888	0.0	0.0	0.0	0.0	0	0	1	-60.0001403060998	60.0001403060998								
	18	19	0.0011961345561344	0.000848869684998608	0.0	0.0	0.0	0.0	0	0	1	-60.0001403060998	60.0001403060998								
	19	20	0.00359483449935016	0.00254017822404886	0.0	0.0	0.0	0.0	0	0	1	-60.0001403060998	60.0001403060998								
	20	21	0.00234725329564009	0.00158198441295195	0.0	0.0	0.0	0.0	0	0	1	-60.0001403060998	60.0001403060998								
	21	22	0.00368486613260759	0.00197426510071646	0.0	0.0	0.0	0.0	0	0	1	-60.0001403060998	60.0001403060998								
	22	23	0.00169130853905026	0.0012282887108692	0.0	0.0	0.0	0.0	0	0	1	-60.0001403060998	60.0001403060998								
	23	24	0.0043922575367731	0.0031961229806387	0.0	0.0	0.0	0.0	0	0	1	-60.0001403060998	60.0001403060998								
	24	25	0.00255947071688974	0.00181349432704248	0.0	0.0	0.0	0.0	0	0	1	-60.0001403060998	60.0001403060998								
	25	26	0.00468807576033322	0.00340834040188835	0.0	0.0	0.0	0.0	0	0	1	-60.0001403060998	60.0001403060998								
	26	27	0.00215432836723132	0.00156912275105803	0.0	0.0	0.0	0.0	0	0	1	-60.0001403060998	60.0001403060998								
	27	28	0.00375560527302414	0.00266236401204109	0.0	0.0	0.0	0.0	0	0	1	-60.0001403060998	60.0001403060998								
	28	29	0.00421219427025824	0.00297747472844209	0.0	0.0	0.0	0.0	0	0	1	-60.0001403060998	60.0001403060998								
	61	62	0.00264307151920021	0.00187137180556511	0.0	0.0	0.0	0.0	0	0	1	-60.0001403060998	60.0001403060998								
	60	63	0.00227008332427658	0.00160770773673979	0.0	0.0	0.0	0.0	0	0	1	-60.0001403060998	60.0001403060998								
	63	64	0.00673308000146623	0.00476524573169673	0.0	0.0	0.0	0.0	0	0	1	-60.0001403060998	60.0001403060998								
	64	65	0.00433438005825047	0.00306750636169951	0.0	0.0	0.0	0.0	0	0	1	-60.0001403060998	60.0001403060998								
	65	66	0.00194211094598166	0.00137619782264926	0.0	0.0	0.0	0.0	0	0	1	-60.0001403060998	60.0001403060998								
	66	67	0.00293245891181337	0.00207715839586781	0.0	0.0	0.0	0.0	0	0	1	-60.0001403060998	60.0001403060998								
	67	68	0.00140192114643709	0.000990347965831709	0.0	0.0	0.0	0.0	0	0	1	-60.0001403060998	60.0001403060998								
	70	72	0.00450158166287141	0.00318326131874478	0.0	0.0	0.0	0.0	0	0	1	-60.0001403060998	60.0001403060998								
	42	73	0.00148552194874756	0.0010546562753013	0.0	0.0	0.0	0.0	0	0	1	-60.0001403060998	60.0001403060998								
	73	74	0.000192924928408774	0.000411573180605386	0.0	0.0	0.0	0.0	0	0	1	-60.0001403060998	60.0001403060998								
	43	75	0.00243728492889752	0.00172346269378505	0.0	0.0	0.0	0.0	0	0	1	-60.0001403060998	60.0001403060998								
	44	76	0.00354981868272145	0.00251445490026103	0.0	0.0	0.0	0.0	0	0	1	-60.0001403060998	60.0001403060998								
	46	77	0.00331830876863092	0.00280384229287419	0.0	0.0	0.0	0.0	0	0	1	-60.0001403060998	60.0001403060998								
	76	78	0.00107394876814218	0.000707391404165506	0.0	0.0	0.0	0.0	0	0	1	-60.0001403060998	60.0001403060998								
	78	79	0.00266879484298805	0.000649513925642874	0.0	0.0	0.0	0.0	0	0	1	-60.0001403060998	60.0001403060998								
	79	80	0.00645012343980003	0.00156912275105803	0.0	0.0	0.0	0.0	0	0	1	-60.0001403060998	60.0001403060998								
	79	81	0.00972984722274919	0.00237940745037489	0.0	0.0	0.0	0.0	0	0	1	-60.0001403060998	60.0001403060998								
	81	82	0.000212217421249652	5.14466475756732e-5	0.0	0.0	0.0	0.0	0	0	1	-60.0001403060998	60.0001403060998								
	47	83	0.000546620630491528	0.000398711518711467	0.0	0.0	0.0	0.0	0	0	1	-60.0001403060998	60.0001403060998								
	49	84	0.00332473959957788	0.00288744309518466	0.0	0.0	0.0	0.0	0	0	1	-60.0001403060998	60.0001403060998								
	50	85	0.000945332149202995	0.000231509914090529	0.0	0.0	0.0	0.0	0	0	1	-60.0001403060998	60.0001403060998								
	85	86	0.000237940745037489	0.000102893295151346	0.0	0.0	0.0	0.0	0	0	1	-60.0001403060998	60.0001403060998								
	86	87	0.0	6.43083094695915e-7	0.0	0.0	0.0	0.0	0	0	1	-60.0001403060998	60.0001403060998								
	7	88	0.00111896458477089	0.00148552194874756	0.0	0.0	0.0	0.0	0	0	1	-60.0001403060998	60.0001403060998								
	88	89	0.00301605971412384	0.00401926934184947	0.0	0.0	0.0	0.0	0	0	1	-60.0001403060998	60.0001403060998								
	89	90	0.00192281845314079	0.00255947071688974	0.0	0.0	0.0	0.0	0	0	1	-60.0001403060998	60.0001403060998								
	90	91	0.00136333616075534	0.00181992515798944	0.0	0.0	0.0	0.0	0	0	1	-60.0001403060998	60.0001403060998								
	91	92	0.00202571174829213	0.00270094899772284	0.0	0.0	0.0	0.0	0	0	1	-60.0001403060998	60.0001403060998								
	92	93	0.00180063266514856	0.00239869994321576	0.0	0.0	0.0	0.0	0	0	1	-60.0001403060998	60.0001403060998								
	93	94	0.00132475117507358	0.00176204767946681	0.0	0.0	0.0	0.0	0	0	1	-60.0001403060998	60.0001403060998								
	94	95	0.00132475117507358	0.00176204767946681	0.0	0.0	0.0	0.0	0	0	1	-60.0001403060998	60.0001403060998								
	89	96	0.00441798086056094	0.00312538384022215	0.0	0.0	0.0	0.0	0	0	1	-60.0001403060998	60.0001403060998								
	96	97	0.00623790601855037	0.00441155002961398	0.0	0.0	0.0	0.0	0	0	1	-60.0001403060998	60.0001403060998								
	97	98	0.00580060951415715	0.00126044286560399	0.0	0.0	0.0	0.0	0	0	1	-60.0001403060998	60.0001403060998								
	97	99	0.000212217421249652	5.14466475756732e-5	0.0	0.0	0.0	0.0	0	0	1	-60.0001403060998	60.0001403060998								
	131	132	0.00223149833859482	0.00157555358200499	0.0	0.0	0.0	0.0	0	0	1	-60.0001403060998	60.0001403060998								
	131	133	0.00591636447120242	0.00430222590351567	0.0	0.0	0.0	0.0	0	0	1	-60.0001403060998	60.0001403060998								
	121	134	0.00540832882639264	0.003935668539539	0.0	0.0	0.0	0.0	0	0	1	-60.0001403060998	60.0001403060998								
	16	135	0.00338904790904747	0.00239869994321576	0.0	0.0	0.0	0.0	0	0	1	-60.0001403060998	60.0001403060998								
	16	136	0.00194211094598166	0.00137619782264926	0.0	0.0	0.0	0.0	0	0	1	-60.0001403060998	60.0001403060998								
	18	137	0.00375560527302414	0.00266236401204109	0.0	0.0	0.0	0.0	0	0	1	-60.0001403060998	60.0001403060998								
	23	138	0.00494530899821159	0.00359483449935016	0.0	0.0	0.0	0.0	0	0	1	-60.0001403060998	60.0001403060998								
	29	30	0.00219934418386003	0.00159484607484587	0.0	0.0	0.0	0.0	0	0	1	-60.0001403060998	60.0001403060998								
	30	31	0.000823146361210771	0.000585205616173283	0.0	0.0	0.0	0.0	0	0	1	-60.0001403060998	60.0001403060998								
	31	32	0.00223149833859482	0.00157555358200499	0.0	0.0	0.0	0.0	0	0	1	-60.0001403060998	60.0001403060998								
	2	33	0.0028488581095029	0.00201928091734517	0.0	0.0	0.0	0.0	0	0	1	-60.0001403060998	60.0001403060998								
	33	34	0.000128616618939183	5.78774785226323e-5	0.0	0.0	0.0	0.0	0	0	1	-60.0001403060998	60.0001403060998								
	5	35	0.0146237095733851	0.00356268034461537	0.0	0.0	0.0	0.0	0	0	1	-60.0001403060998	60.0001403060998								
	5	36	0.00813500114790332	0.0100642504319911	0.0	0.0	0.0	0.0	0	0	1	-60.0001403060998	60.0001403060998								
	6	37	0.000353695702082753	0.000469450659128018	0.0	0.0	0.0	0.0	0	0	1	-60.0001403060998	60.0001403060998								
	37	38	0.0130931718080088	0.00926039656362118	0.0	0.0	0.0	0.0	0	0	1	-60.0001403060998	60.0001403060998								
	38	39	0.00603211942824768	0.00426364091783392	0.0	0.0	0.0	0.0	0	0	1	-60.0001403060998	60.0001403060998								
	39	40	0.00223149833859482	0.00157555358200499	0.0	0.0	0.0	0.0	0	0	1	-60.0001403060998	60.0001403060998								
	40	41	0.0059035028093085	0.00418004011552345	0.0	0.0	0.0	0.0	0	0	1	-60.0001403060998	60.0001403060998								
	41	42	0.0149066661350513	0.010546562753013	0.0	0.0	0.0	0.0	0	0	1	-60.0001403060998	60.0001403060998								
	42	43	0.00776201295297969	0.00549192962870311	0.0	0.0	0.0	0.0	0	0	1	-60.0001403060998	60.0001403060998								
	43	44	0.0028488581095029	0.00201928091734517	0.0	0.0	0.0	0.0	0	0	1	-60.0001403060998	60.0001403060998								
	44	45	0.00260448653351846	0.00185207931272424	0.0	0.0	0.0	0.0	0	0	1	-60.0001403060998	60.0001403060998								
	45	46	0.00102893295151346	0.000816715530263812	0.0	0.0	0.0	0.0	0	0	1	-60.0001403060998	60.0001403060998								
	46	47	0.00409000848226602	0.00289387392613162	0.0	0.0	0.0	0.0	0	0	1	-60.0001403060998	60.0001403060998								
	47	48	0.00268165650488197	0.00189709512935295	0.0	0.0	0.0	0.0	0	0	1	-60.0001403060998	60.0001403060998								
	48	49	0.0047073682531741	0.00327972378294917	0.0	0.0	0.0	0.0	0	0	1	-60.0001403060998	60.0001403060998								
	49	50	0.00532472802408218	0.00357554200650929	0.0	0.0	0.0	0.0	0	0	1	-60.0001403060998	60.0001403060998								
	50	51	0.00255947071688974	0.00181349432704248	0.0	0.0	0.0	0.0	0	0	1	-60.0001403060998	60.0001403060998								
	51	52	0.00144693696306581	0.0010225021205665	0.0	0.0	0.0	0.0	0	0	1	-60.0001403060998	60.0001403060998								
	38	53	0.00540832882639264	0.00382634441344069	0.0	0.0	0.0	0.0	0	0	1	-60.0001403060998	60.0001403060998								
	42	54	0.00103536378246042	0.000733114727953343	0.0	0.0	0.0	0.0	0	0	1	-60.0001403060998	60.0001403060998								
	54	55	0.00338904790904747	0.00239869994321576	0.0	0.0	0.0	0.0	0	0	1	-60.0001403060998	60.0001403060998								
	55	56	0.00574273203563452	0.00406428515847818	0.0	0.0	0.0	0.0	0	0	1	-60.0001403060998	60.0001403060998								
	56	57	0.00557553043101358	0.00394209937048596	0.0	0.0	0.0	0.0	0	0	1	-60.0001403060998	60.0001403060998								
	57	58	0.00433438005825047	0.00306750636169951	0.0	0.0	0.0	0.0	0	0	1	-60.0001403060998	60.0001403060998								
	58	59	0.00301605971412384	0.00213503587439044	0.0	0.0	0.0	0.0	0	0	1	-60.0001403060998	60.0001403060998								
	55	60	0.00214789753628436	0.00151767610348236	0.0	0.0	0.0	0.0	0	0	1	-60.0001403060998	60.0001403060998								
	60	61	0.00210288171965564	0.00149195277969452	0.0	0.0	0.0	0.0	0	0	1	-60.0001403060998	60.0001403060998								
	63	69	0.00235368412658705	0.00166558521526242	0.0	0.0	0.0	0.0	0	0	1	-60.0001403060998	60.0001403060998								
	55	70	0.00148552194874756	0.0010546562753013	0.0	0.0	0.0	0.0	0	0	1	-60.0001403060998	60.0001403060998								
	70	71	0.000771699713635098	0.000186494097461815	0.0	0.0	0.0	0.0	0	0	1	-60.0001403060998	60.0001403060998								
	99	100	0.000212217421249652	5.14466475756732e-5	0.0	0.0	0.0	0.0	0	0	1	-60.0001403060998	60.0001403060998								
	91	101	0.00148552194874756	0.0010546562753013	0.0	0.0	0.0	0.0	0	0	1	-60.0001403060998	60.0001403060998								
	101	102	0.00371702028734239	0.00263020985730629	0.0	0.0	0.0	0.0	0	0	1	-60.0001403060998	60.0001403060998								
	102	103	0.00571700871184668	0.00139549031549014	0.0	0.0	0.0	0.0	0	0	1	-60.0001403060998	60.0001403060998								
	103	104	0.00404499266563731	0.00098391713488475	0.0	0.0	0.0	0.0	0	0	1	-60.0001403060998	60.0001403060998								
	104	105	0.00752407220794221	0.00183278681988336	0.0	0.0	0.0	0.0	0	0	1	-60.0001403060998	60.0001403060998								
	104	106	0.000733114727953343	0.000167201604620938	0.0	0.0	0.0	0.0	0	0	1	-60.0001403060998	60.0001403060998								
	92	107	0.00545977547396832	0.00133118200602054	0.0	0.0	0.0	0.0	0	0	1	-60.0001403060998	60.0001403060998								
	94	108	0.003935668539539	0.00167201604620938	0.0	0.0	0.0	0.0	0	0	1	-60.0001403060998	60.0001403060998								
	108	109	0.00290673558802554	0.00123471954181616	0.0	0.0	0.0	0.0	0	0	1	-60.0001403060998	60.0001403060998								
	94	110	0.000212217421249652	5.14466475756732e-5	0.0	0.0	0.0	0.0	0	0	1	-60.0001403060998	60.0001403060998								
	7	111	0.00462376745086363	0.00327329295200221	0.0	0.0	0.0	0.0	0	0	1	-60.0001403060998	60.0001403060998								
	10	112	0.00688098911324629	0.00167844687715634	0.0	0.0	0.0	0.0	0	0	1	-60.0001403060998	60.0001403060998								
	11	113	0.00223149833859482	0.00157555358200499	0.0	0.0	0.0	0.0	0	0	1	-60.0001403060998	60.0001403060998								
	13	114	0.00400640767995555	0.00283599644760899	0.0	0.0	0.0	0.0	0	0	1	-60.0001403060998	60.0001403060998								
	114	115	0.00429579507256871	0.00304178303791168	0.0	0.0	0.0	0.0	0	0	1	-60.0001403060998	60.0001403060998								
	115	116	0.000257233237878366	6.43083094695915e-5	0.0	0.0	0.0	0.0	0	0	1	-60.0001403060998	60.0001403060998								
	14	117	0.00325400045916133	0.00235368412658705	0.0	0.0	0.0	0.0	0	0	1	-60.0001403060998	60.0001403060998								
	15	118	0.00103536378246042	0.000733114727953343	0.0	0.0	0.0	0.0	0	0	1	-60.0001403060998	60.0001403060998								
	118	119	0.00297104389749513	0.00210288171965564	0.0	0.0	0.0	0.0	0	0	1	-60.0001403060998	60.0001403060998								
	119	120	0.00272667232151068	0.00192924928408774	0.0	0.0	0.0	0.0	0	0	1	-60.0001403060998	60.0001403060998								
	120	121	0.00326043129010829	0.00230866830995833	0.0	0.0	0.0	0.0	0	0	1	-60.0001403060998	60.0001403060998								
	121	122	0.0047073682531741	0.00333117043052484	0.0	0.0	0.0	0.0	0	0	1	-60.0001403060998	60.0001403060998								
	122	123	0.00375560527302414	0.00266236401204109	0.0	0.0	0.0	0.0	0	0	1	-60.0001403060998	60.0001403060998								
	123	124	0.00392280687764508	0.00277811896908635	0.0	0.0	0.0	0.0	0	0	1	-60.0001403060998	60.0001403060998								
	124	125	0.00503534063146901	0.00356268034461537	0.0	0.0	0.0	0.0	0	0	1	-60.0001403060998	60.0001403060998								
	125	126	0.00536331300976393	0.0039035143848042	0.0	0.0	0.0	0.0	0	0	1	-60.0001403060998	60.0001403060998								
	126	127	0.00223149833859482	0.00157555358200499	0.0	0.0	0.0	0.0	0	0	1	-60.0001403060998	60.0001403060998								
	127	128	0.00366557363976672	0.00270094899772284	0.0	0.0	0.0	0.0	0	0	1	-60.0001403060998	60.0001403060998								
	128	129	0.0037620361039711	0.00273310315245764	0.0	0.0	0.0	0.0	0	0	1	-60.0001403060998	60.0001403060998								
	129	130	0.000662375587536792	0.000469450659128018	0.0	0.0	0.0	0.0	0	0	1	-60.0001403060998	60.0001403060998								
	119	131	0.0022829449861705	0.00162700022958066	0.0	0.0	0.0	0.0	0	0	1	-60.0001403060998	60.0001403060998								
	25	139	0.00610928939961119	0.00432794922730351	0.0	0.0	0.0	0.0	0	0	1	-60.0001403060998	60.0001403060998								
	30	140	0.0033376012614718	0.0024244232670036	0.0	0.0	0.0	0.0	0	0	1	-60.0001403060998	60.0001403060998								
	31	141	0.00375560527302414	0.00266236401204109	0.0	0.0	0.0	0.0	0	0	1	-60.0001403060998	60.0001403060998								
];

%%-----  OPF Data  -----%%
%% cost data
%    1    startup    shutdown    n    x1    y1    ...    xn    yn
%    2    startup    shutdown    n    c(n-1)    ...    c0
mpc.gencost = [
	2	0.0	0.0	2	20.0	0.0
	2	0.0	0.0	2	0.0	0.0
	2	0.0	0.0	2	0.0	0.0
	2	0.0	0.0	2	0.0	0.0
	2	0.0	0.0	2	0.0	0.0
];

